<?xml version="1.0" encoding="utf-8"?>
<project xmlns="http://www.plcopen.org/xml/tc6_0200">
	<fileHeader companyName="" productName="poSTIDE" productVersion="" creationDateTime="2021-08-31T00:00:00.000000" />
	<contentHeader name="poST.project">
		<coordinateInfo>
			<fbd>
				<scaling x="1" y="1" />
			</fbd>
			<ld>
				<scaling x="1" y="1" />
			</ld>
			<sfc>
				<scaling x="1" y="1" />
			</sfc>
		</coordinateInfo>
	</contentHeader>
	<types>
		<dataTypes />
		<pous>
			<pou name="ADD" pouType="function">
				<interface>
					<returnType>
						<ANY_MAGNITUDE />
					</returnType>
					<inputVars>
						<variable name="in1">
							<type>
								<ANY_MAGNITUDE />
							</type>
						</variable>
						<variable name="in2">
							<type>
								<ANY_MAGNITUDE />
							</type>
						</variable>
					</inputVars>
				</interface>
			</pou>
		</pous>
	</types>
	<instances>
		<configurations />
	</instances>
</project>